<?xml version="1.0" encoding="UTF-8"?>

<!-- generated on 2025-11-25 17:38:41 by Eclipse SUMO netedit Version 1.24.0
-->

<routes xmlns:xsi="http://www.w3.org/2001/XMLSchema-instance" xsi:noNamespaceSchemaLocation="http://sumo.dlr.de/xsd/routes_file.xsd">
    <!-- Vehicles, persons and containers (sorted by depart) -->
    <trip id="t_0" depart="0.00" from="ID_BDAYA" to="ID_NIHAYA" via="E3.39"/>
</routes>
